*Heading
** Job name: ckb_24 Model name: 60
** Generated by: Abaqus/CAE 6.14-2
*Preprint, echo=NO, model=NO, history=NO, contact=NO
**
** PARTS
**
*Part, name=Part-1
*Node
      1,           0.,           0.
      2,  0.800000012,  0.733333349
      3,   1.60000002,    1.4666667
      4,    2.4000001,   2.20000005
      5,   3.20000005,    2.9333334
      6,           4.,   3.66666675
      7,   4.80000019,    4.4000001
      8,    5.5999999,   5.13333321
      9,    6.4000001,   5.86666679
     10,   7.19999981,    6.5999999
     11,           8.,   7.33333349
     12,   8.80000019,    8.0666666
     13,   9.60000038,   8.80000019
     14,   10.3999996,   9.53333378
     15,   11.1999998,   10.2666664
     16,          12.,          11.
     17,   12.8000002,   11.7333336
     18,   13.6000004,   12.4666662
     19,   14.3999996,   13.1999998
     20,   15.1999998,   13.9333334
** ... 3701 like lines cut
*Element, type=CPS4R
   1,    1,    2,   63,   62
   2,    2,    3,   64,   63
   3,    3,    4,   65,   64
   4,    4,    5,   66,   65
   5,    5,    6,   67,   66
   6,    6,    7,   68,   67
   7,    7,    8,   69,   68
   8,    8,    9,   70,   69
   9,    9,   10,   71,   70
  10,   10,   11,   72,   71
  11,   11,   12,   73,   72
  12,   12,   13,   74,   73
  13,   13,   14,   75,   74
  14,   14,   15,   76,   75
  15,   15,   16,   77,   76
  16,   16,   17,   78,   77
  17,   17,   18,   79,   78
  18,   18,   19,   80,   79
  19,   19,   20,   81,   80
  20,   20,   21,   82,   81
** ... 3580 like lines cut
*Nset, nset=Set-1, generate
    1,  3721,     1
*Elset, elset=Set-1, generate
    1,  3600,     1
** Section: Section-1
*Solid Section, elset=Set-1, material=Material-1
1.,
*End Part
**  
**
** ASSEMBLY
**
*Assembly, name=Assembly
**  
*Instance, name=Part-1-1, part=Part-1
*End Instance
**  
*Nset, nset=Set-1, instance=Part-1-1, generate
    1,  3661,    61
*Elset, elset=Set-1, instance=Part-1-1, generate
    1,  3541,    60
*Elset, elset=_Surf-1_S2, internal, instance=Part-1-1, generate
   60,  3600,    60
*Surface, type=ELEMENT, name=Surf-1
_Surf-1_S2, S2
*End Assembly
*Amplitude, name=Amp-1
             0.,              1.,              1.,              1.
** 
** MATERIALS
** 
*Material, name=Material-1
*Elastic
2000., 0.5
** ----------------------------------------------------------------
** 
** STEP: Step-1
** 
*Step, name=Step-1, nlgeom=NO
*Static
1., 1., 1e-05, 1.
** 
** BOUNDARY CONDITIONS
** 
** Name: BC-1 Type: Symmetry/Antisymmetry/Encastre
*Boundary
Set-1, PINNED
** 
** LOADS
** 
** Name: Load-1   Type: Surface traction
*Dsload, amplitude=Amp-1, constant resultant=YES
Surf-1, TRSHR, 1., 0., 1., 0.
** 
** OUTPUT REQUESTS
** 
*Restart, write, frequency=0
** 
** FIELD OUTPUT: F-Output-1
** 
*Output, field, variable=PRESELECT
** 
** HISTORY OUTPUT: H-Output-1
** 
*Output, history, variable=PRESELECT
*End Step
