*Heading
** Job name: ckb_24 Model name: 24
** Generated by: Abaqus/CAE 6.14-2
*Preprint, echo=NO, model=NO, history=NO, contact=NO
**
** PARTS
**
*Part, name=Part-1
*Node
      1,           0.,           0.
      2,           2.,   1.83333337
      3,           4.,   3.66666675
      4,           6.,          5.5
      5,           8.,   7.33333349
      6,          10.,   9.16666698
      7,          12.,          11.
      8,          14.,    12.833333
      9,          16.,    14.666667
     10,          18.,         16.5
     11,          20.,    18.333334
     12,          22.,    20.166666
     13,          24.,          22.
     14,          26.,    23.833334
     15,          28.,    25.666666
     16,          30.,         27.5
     17,          32.,    29.333334
     18,          34.,    31.166666
     19,          36.,          33.
     20,          38.,   34.8333321
** ... 605 like lines cut
*Element, type=CPS4R
  1,   1,   2,  27,  26
  2,   2,   3,  28,  27
  3,   3,   4,  29,  28
  4,   4,   5,  30,  29
  5,   5,   6,  31,  30
  6,   6,   7,  32,  31
  7,   7,   8,  33,  32
  8,   8,   9,  34,  33
  9,   9,  10,  35,  34
 10,  10,  11,  36,  35
 11,  11,  12,  37,  36
 12,  12,  13,  38,  37
 13,  13,  14,  39,  38
 14,  14,  15,  40,  39
 15,  15,  16,  41,  40
 16,  16,  17,  42,  41
 17,  17,  18,  43,  42
 18,  18,  19,  44,  43
 19,  19,  20,  45,  44
 20,  20,  21,  46,  45
** ... 556 like lines cut
*Nset, nset=Set-1, generate
   1,  625,    1
*Elset, elset=Set-1, generate
   1,  576,    1
** Section: Section-1
*Solid Section, elset=Set-1, material=Material-1
1.,
*End Part
** 
** MATERIALS
** 
*Material, name=Material-1
*Elastic
2000., 0.5
** ----------------------------------------------------------------
** 
** STEP: Step-1
** 
*Step, name=Step-1, nlgeom=NO
*Static
1., 1., 1e-05, 1.
** 
** BOUNDARY CONDITIONS
** 
** Name: BC-1 Type: Symmetry/Antisymmetry/Encastre
*Boundary
Set-1, PINNED
** 
** LOADS
** 
** Name: Load-1   Type: Surface traction
*Dsload, amplitude=Amp-1, constant resultant=YES
Surf-1, TRSHR, 1., 0., 1., 0.
** 
** OUTPUT REQUESTS
** 
*Restart, write, frequency=0
** 
** FIELD OUTPUT: F-Output-1
** 
*Output, field, variable=PRESELECT
** 
** HISTORY OUTPUT: H-Output-1
** 
*Output, history, variable=PRESELECT
*End Step
