*Heading
** Job name: ckb_16 Model name: 16
** Generated by: Abaqus/CAE 6.14-2
*Preprint, echo=NO, model=NO, history=NO, contact=NO
**
** PARTS
**
*Part, name=Part-1
*Node
      1,           0.,           0.
      2,           3.,         2.75
      3,           6.,          5.5
      4,           9.,         8.25
      5,          12.,          11.
      6,          15.,        13.75
      7,          18.,         16.5
      8,          21.,        19.25
      9,          24.,          22.
     10,          27.,        24.75
     11,          30.,         27.5
     12,          33.,        30.25
     13,          36.,          33.
     14,          39.,        35.75
     15,          42.,         38.5
     16,          45.,        41.25
     17,          48.,          44.
     18,           0.,         2.75
     19,           3.,     5.390625
     20,           6.,      8.03125
** ... 269 like lines cut
*Element, type=CPS4R
  1,   1,   2,  19,  18
  2,   2,   3,  20,  19
  3,   3,   4,  21,  20
  4,   4,   5,  22,  21
  5,   5,   6,  23,  22
  6,   6,   7,  24,  23
  7,   7,   8,  25,  24
  8,   8,   9,  26,  25
  9,   9,  10,  27,  26
 10,  10,  11,  28,  27
 11,  11,  12,  29,  28
 12,  12,  13,  30,  29
 13,  13,  14,  31,  30
 14,  14,  15,  32,  31
 15,  15,  16,  33,  32
 16,  16,  17,  34,  33
 17,  18,  19,  36,  35
 18,  19,  20,  37,  36
 19,  20,  21,  38,  37
 20,  21,  22,  39,  38
** ... 236 like lines cut
*Nset, nset=Set-1, generate
   1,  289,    1
*Elset, elset=Set-1, generate
   1,  256,    1
** Section: Section-1
*Solid Section, elset=Set-1, material=Material-1
1.,
*End Part
**  
**
** ASSEMBLY
**
*Assembly, name=Assembly
**  
*Instance, name=Part-1-1, part=Part-1
*End Instance
**  
*Nset, nset=Set-1, instance=Part-1-1, generate
   1,  273,   17
*Elset, elset=Set-1, instance=Part-1-1, generate
   1,  241,   16
*Elset, elset=_Surf-1_S2, internal, instance=Part-1-1, generate
  16,  256,   16
*Surface, type=ELEMENT, name=Surf-1
_Surf-1_S2, S2
*End Assembly
*Amplitude, name=Amp-1
             0.,              1.,              1.,              1.
** 
** MATERIALS
** 
*Material, name=Material-1
*Elastic
2000., 0.5
** ----------------------------------------------------------------
** 
** STEP: Step-1
** 
*Step, name=Step-1, nlgeom=NO
*Static
1., 1., 1e-05, 1.
** 
** BOUNDARY CONDITIONS
** 
** Name: BC-1 Type: Symmetry/Antisymmetry/Encastre
*Boundary
Set-1, PINNED
** 
** LOADS
** 
** Name: Load-1   Type: Surface traction
*Dsload, amplitude=Amp-1, constant resultant=YES
Surf-1, TRSHR, 1., 0., 1., 0.
** 
** OUTPUT REQUESTS
** 
*Restart, write, frequency=0
** 
** FIELD OUTPUT: F-Output-1
** 
*Output, field, variable=PRESELECT
** 
** HISTORY OUTPUT: H-Output-1
** 
*Output, history, variable=PRESELECT
*End Step
