*Heading
** Job name: ckb_08 Model name: 08
** Generated by: Abaqus/CAE 6.14-2
*Preprint, echo=NO, model=NO, history=NO, contact=NO
**
** PARTS
**
*Part, name=Part-1
*Node
      1,           0.,           0.
      2,           6.,          5.5
      3,          12.,          11.
      4,          18.,         16.5
      5,          24.,          22.
      6,          30.,         27.5
      7,          36.,          33.
      8,          42.,         38.5
      9,          48.,          44.
     10,           0.,          5.5
     11,           6.,      10.5625
     12,          12.,       15.625
     13,          18.,      20.6875
     14,          24.,        25.75
     15,          30.,      30.8125
     16,          36.,       35.875
     17,          42.,      40.9375
     18,          48.,          46.
     19,           0.,          11.
     20,           6.,       15.625
** ... 61 like lines cut
*Element, type=CPS4R
 1,  1,  2, 11, 10
 2,  2,  3, 12, 11
 3,  3,  4, 13, 12
 4,  4,  5, 14, 13
 5,  5,  6, 15, 14
 6,  6,  7, 16, 15
 7,  7,  8, 17, 16
 8,  8,  9, 18, 17
 9, 10, 11, 20, 19
10, 11, 12, 21, 20
11, 12, 13, 22, 21
12, 13, 14, 23, 22
13, 14, 15, 24, 23
14, 15, 16, 25, 24
15, 16, 17, 26, 25
16, 17, 18, 27, 26
17, 19, 20, 29, 28
18, 20, 21, 30, 29
19, 21, 22, 31, 30
20, 22, 23, 32, 31
** ... 44 like lines cut
** 
** MATERIALS
** 
*Material, name=Material-1
*Elastic
2000., 0.5
** ----------------------------------------------------------------
** 
** STEP: Step-1
** 
*Step, name=Step-1, nlgeom=NO
*Static
1., 1., 1e-05, 1.
** 
** BOUNDARY CONDITIONS
** 
** Name: BC-1 Type: Symmetry/Antisymmetry/Encastre
*Boundary
Set-1, PINNED
** 
** LOADS
** 
** Name: Load-1   Type: Surface traction
*Dsload, amplitude=Amp-1, constant resultant=YES
Surf-1, TRSHR, 1., 0., 1., 0.
** 
** OUTPUT REQUESTS
** 
*Restart, write, frequency=0
** 
** FIELD OUTPUT: F-Output-1
** 
*Output, field, variable=PRESELECT
** 
** HISTORY OUTPUT: H-Output-1
** 
*Output, history, variable=PRESELECT
*End Step
